simulation_N/IEEE_123_homes_1min_nothermostatcontrol.glm
module residential {
	implicit_enduses NONE;
}

module climate;

module tape;

module generators;

filter sumHVAC(z,5min) = (1.0 + 1.0 z + 1.0 z^2 + 1.0 z^3 + 1.0 z^4)/(z^5);

class player {
	double value;
}

class house {
	double k;
	double T_max;
	double T_min;
	double hvac_energy_5min;
}

class battery {
	char8 charging_type;
	double k;
}

object climate {
	name tmy_file;
	tmyfile 724940TYA.tmy3;
	interpolate LINEAR;
}

object triplex_line_conductor {
	name "c1/0 AA triplex";
	resistance 0.97;
	geometric_mean_radius 0.0111;
}

object triplex_line_configuration {
	name triplex_line_config;
	conductor_1 "c1/0 AA triplex";
	conductor_2 "c1/0 AA triplex";
	conductor_N "c1/0 AA triplex";
	insulation_thickness 0.08;
	diameter 0.368;
}

object transformer_configuration {
	name house_transformer;
	connect_type SINGLE_PHASE_CENTER_TAPPED;
	install_type PADMOUNT;
	primary_voltage 2401.7771 V;
	secondary_voltage 124 V;
	power_rating 250;
	impedance 0.015+0.0675j;
}

object player {
	name player_0;
	file players_Austin/ps_3831_2016.player;
}

object player {
	name player_1;
	file players_Austin/ps_3039_2016.player;
}

object player {
	name player_2;
	file players_Austin/ps_93_2016.player;
}

object player {
	name player_3;
	file players_Austin/ps_503_2016.player;
}

object player {
	name player_4;
	file players_Austin/ps_86_2016.player;
}

object player {
	name player_5;
	file players_Austin/ps_187_2016.player;
}

object player {
	name player_6;
	file players_Austin/ps_1718_2016.player;
}

object player {
	name player_7;
	file players_Austin/ps_1551_2016.player;
}

object player {
	name player_8;
	file players_Austin/ps_2557_2016.player;
}

object player {
	name player_9;
	file players_Austin/ps_3918_2016.player;
}

object player {
	name player_10;
	file players_Austin/ps_2472_2016.player;
}

object player {
	name player_11;
	file players_Austin/ps_3527_2016.player;
}

object player {
	name player_12;
	file players_Austin/ps_2335_2016.player;
}

object player {
	name player_13;
	file players_Austin/ps_2072_2016.player;
}

object player {
	name player_14;
	file players_Austin/ps_1103_2016.player;
}

object player {
	name player_15;
	file players_Austin/ps_3500_2016.player;
}

object player {
	name player_16;
	file players_Austin/ps_59_2016.player;
}

object player {
	name player_17;
	file players_Austin/ps_77_2016.player;
}

object player {
	name player_18;
	file players_Austin/ps_499_2016.player;
}

object player {
	name player_19;
	file players_Austin/ps_2980_2016.player;
}

object player {
	name player_20;
	file players_Austin/ps_1192_2016.player;
}

object player {
	name player_21;
	file players_Austin/ps_1714_2016.player;
}

object player {
	name player_22;
	file players_Austin/ps_2953_2016.player;
}

object player {
	name player_23;
	file players_Austin/ps_3967_2016.player;
}

object player {
	name player_24;
	file players_Austin/ps_3778_2016.player;
}

object player {
	name player_25;
	file players_Austin/ps_1500_2016.player;
}

object player {
	name player_26;
	file players_Austin/ps_2158_2016.player;
}

object player {
	name player_27;
	file players_Austin/ps_2361_2016.player;
}

object player {
	name player_28;
	file players_Austin/ps_974_2016.player;
}

object player {
	name player_29;
	file players_Austin/ps_796_2016.player;
}

object player {
	name player_30;
	file players_Austin/ps_3538_2016.player;
}

object player {
	name player_31;
	file players_Austin/ps_946_2016.player;
}

object player {
	name player_32;
	file players_Austin/ps_2638_2016.player;
}

object player {
	name player_33;
	file players_Austin/ps_2945_2016.player;
}

object player {
	name player_34;
	file players_Austin/ps_2004_2016.player;
}

object player {
	name player_35;
	file players_Austin/ps_115_2016.player;
}

object player {
	name player_36;
	file players_Austin/ps_1796_2016.player;
}

object player {
	name player_37;
	file players_Austin/ps_3935_2016.player;
}

object player {
	name player_38;
	file players_Austin/ps_252_2016.player;
}

object player {
	name player_39;
	file players_Austin/ps_3736_2016.player;
}

object player {
	name player_40;
	file players_Austin/ps_2018_2016.player;
}

object player {
	name player_41;
	file players_Austin/ps_3456_2016.player;
}

object player {
	name player_42;
	file players_Austin/ps_2986_2016.player;
}

object player {
	name player_43;
	file players_Austin/ps_1086_2016.player;
}

object player {
	name player_44;
	file players_Austin/ps_2378_2016.player;
}

object player {
	name player_45;
	file players_Austin/ps_3723_2016.player;
}

object player {
	name player_46;
	file players_Austin/ps_2461_2016.player;
}

object player {
	name player_47;
	file players_Austin/ps_3273_2016.player;
}

object player {
	name player_48;
	file players_Austin/ps_1169_2016.player;
}

object player {
	name player_49;
	file players_Austin/ps_2925_2016.player;
}

object player {
	name player_50;
	file players_Austin/ps_3134_2016.player;
}

object player {
	name player_51;
	file players_Austin/ps_3506_2016.player;
}

object player {
	name player_52;
	file players_Austin/ps_483_2016.player;
}

object player {
	name player_53;
	file players_Austin/ps_1642_2016.player;
}

object player {
	name player_54;
	file players_Austin/ps_2233_2016.player;
}

object player {
	name player_55;
	file players_Austin/ps_3482_2016.player;
}

object player {
	name player_56;
	file players_Austin/ps_3829_2016.player;
}

object player {
	name player_57;
	file players_Austin/ps_890_2016.player;
}

object player {
	name player_58;
	file players_Austin/ps_3268_2016.player;
}

object player {
	name player_59;
	file players_Austin/ps_871_2016.player;
}

object player {
	name player_60;
	file players_Austin/ps_781_2016.player;
}

object player {
	name player_61;
	file players_Austin/ps_3413_2016.player;
}

object player {
	name player_62;
	file players_Austin/ps_545_2016.player;
}

object player {
	name player_63;
	file players_Austin/ps_3392_2016.player;
}

object player {
	name player_64;
	file players_Austin/ps_3044_2016.player;
}

object player {
	name player_65;
	file players_Austin/ps_1283_2016.player;
}

object player {
	name player_66;
	file players_Austin/ps_2199_2016.player;
}

object player {
	name player_67;
	file players_Austin/ps_370_2016.player;
}

object player {
	name player_68;
	file players_Austin/ps_2034_2016.player;
}

object player {
	name player_69;
	file players_Austin/ps_3849_2016.player;
}

object player {
	name player_70;
	file players_Austin/ps_379_2016.player;
}

object player {
	name player_71;
	file players_Austin/ps_1415_2016.player;
}

object player {
	name player_72;
	file players_Austin/ps_410_2016.player;
}

object player {
	name player_73;
	file players_Austin/ps_1507_2016.player;
}

object player {
	name player_74;
	file players_Austin/ps_1202_2016.player;
}

object player {
	name player_75;
	file players_Austin/ps_3893_2016.player;
}

object player {
	name player_76;
	file players_Austin/ps_2965_2016.player;
}

object player {
	name player_77;
	file players_Austin/ps_2787_2016.player;
}

object player {
	name player_78;
	file players_Austin/ps_1310_2016.player;
}

object player {
	name player_79;
	file players_Austin/ps_1801_2016.player;
}

object player {
	name player_80;
	file players_Austin/ps_2859_2016.player;
}

object player {
	name player_81;
	file players_Austin/ps_171_2016.player;
}

object player {
	name player_82;
	file players_Austin/ps_668_2016.player;
}

object player {
	name player_83;
	file players_Austin/ps_2365_2016.player;
}

object player {
	name player_84;
	file players_Austin/ps_101_2016.player;
}

object player {
	name player_85;
	file players_Austin/ps_3009_2016.player;
}

object player {
	name player_86;
	file players_Austin/ps_2818_2016.player;
}

object player {
	name player_87;
	file players_Austin/ps_3310_2016.player;
}

object player {
	name player_88;
	file players_Austin/ps_1334_2016.player;
}

object player {
	name player_89;
	file players_Austin/ps_661_2016.player;
}

object player {
	name player_90;
	file players_Austin/ps_1947_2016.player;
}

object player {
	name player_91;
	file players_Austin/ps_3719_2016.player;
}

object player {
	name player_92;
	file players_Austin/ps_2094_2016.player;
}

object player {
	name player_93;
	file players_Austin/ps_585_2016.player;
}

object player {
	name player_94;
	file players_Austin/ps_3649_2016.player;
}

object player {
	name player_95;
	file players_Austin/ps_114_2016.player;
}

object player {
	name player_96;
	file players_Austin/ps_2337_2016.player;
}

object player {
	name player_97;
	file players_Austin/ps_994_2016.player;
}

object player {
	name player_98;
	file players_Austin/ps_1185_2016.player;
}

object player {
	name player_99;
	file players_Austin/ps_2470_2016.player;
}

object player {
	name player_100;
	file players_Austin/ps_1792_2016.player;
}

object player {
	name player_101;
	file players_Austin/ps_744_2016.player;
}

object player {
	name player_102;
	file players_Austin/ps_2814_2016.player;
}

object player {
	name player_103;
	file players_Austin/ps_2129_2016.player;
}

object player {
	name player_104;
	file players_Austin/ps_3635_2016.player;
}

object player {
	name player_105;
	file players_Austin/ps_1463_2016.player;
}

object player {
	name player_106;
	file players_Austin/ps_94_2016.player;
}

object player {
	name player_107;
	file players_Austin/ps_3916_2016.player;
}

object triplex_node {
	name node_1_A;
	nominal_voltage 124.00;
	phases AS;
}

object transformer {
	name house_trans_1_A;
	phases AS;
	from meter_1;
	to node_1_A;
	configuration house_transformer;
}

object triplex_node {
	name node_2_B;
	nominal_voltage 124.00;
	phases BS;
}

object transformer {
	name house_trans_2_B;
	phases BS;
	from meter_2;
	to node_2_B;
	configuration house_transformer;
}

object triplex_node {
	name node_4_C;
	nominal_voltage 124.00;
	phases CS;
}

object transformer {
	name house_trans_4_C;
	phases CS;
	from meter_4;
	to node_4_C;
	configuration house_transformer;
}

object triplex_node {
	name node_5_C;
	nominal_voltage 124.00;
	phases CS;
}

object transformer {
	name house_trans_5_C;
	phases CS;
	from meter_5;
	to node_5_C;
	configuration house_transformer;
}

object triplex_node {
	name node_6_C;
	nominal_voltage 124.00;
	phases CS;
}

object transformer {
	name house_trans_6_C;
	phases CS;
	from meter_6;
	to node_6_C;
	configuration house_transformer;
}

object triplex_node {
	name node_7_A;
	nominal_voltage 124.00;
	phases AS;
}

object transformer {
	name house_trans_7_A;
	phases AS;
	from meter_7;
	to node_7_A;
	configuration house_transformer;
}

object triplex_node {
	name node_9_A;
	nominal_voltage 124.00;
	phases AS;
}

object transformer {
	name house_trans_9_A;
	phases AS;
	from meter_9;
	to node_9_A;
	configuration house_transformer;
}

object triplex_node {
	name node_10_A;
	nominal_voltage 124.00;
	phases AS;
}

object transformer {
	name house_trans_10_A;
	phases AS;
	from meter_10;
	to node_10_A;
	configuration house_transformer;
}

object triplex_node {
	name node_11_A;
	nominal_voltage 124.00;
	phases AS;
}

object transformer {
	name house_trans_11_A;
	phases AS;
	from meter_11;
	to node_11_A;
	configuration house_transformer;
}

object triplex_node {
	name node_12_B;
	nominal_voltage 124.00;
	phases BS;
}

object transformer {
	name house_trans_12_B;
	phases BS;
	from meter_12;
	to node_12_B;
	configuration house_transformer;
}

object triplex_node {
	name node_16_C;
	nominal_voltage 124.00;
	phases CS;
}

object transformer {
	name house_trans_16_C;
	phases CS;
	from meter_16;
	to node_16_C;
	configuration house_transformer;
}

object triplex_node {
	name node_17_C;
	nominal_voltage 124.00;
	phases CS;
}

object transformer {
	name house_trans_17_C;
	phases CS;
	from meter_17;
	to node_17_C;
	configuration house_transformer;
}

object triplex_node {
	name node_19_A;
	nominal_voltage 124.00;
	phases AS;
}

object transformer {
	name house_trans_19_A;
	phases AS;
	from meter_19;
	to node_19_A;
	configuration house_transformer;
}

object triplex_node {
	name node_20_A;
	nominal_voltage 124.00;
	phases AS;
}

object transformer {
	name house_trans_20_A;
	phases AS;
	from meter_20;
	to node_20_A;
	configuration house_transformer;
}

object triplex_node {
	name node_22_B;
	nominal_voltage 124.00;
	phases BS;
}

object transformer {
	name house_trans_22_B;
	phases BS;
	from meter_22;
	to node_22_B;
	configuration house_transformer;
}

object triplex_node {
	name node_24_C;
	nominal_voltage 124.00;
	phases CS;
}

object transformer {
	name house_trans_24_C;
	phases CS;
	from meter_24;
	to node_24_C;
	configuration house_transformer;
}

object triplex_node {
	name node_28_A;
	nominal_voltage 124.00;
	phases AS;
}

object transformer {
	name house_trans_28_A;
	phases AS;
	from meter_28;
	to node_28_A;
	configuration house_transformer;
}

object triplex_node {
	name node_29_A;
	nominal_voltage 124.00;
	phases AS;
}

object transformer {
	name house_trans_29_A;
	phases AS;
	from meter_29;
	to node_29_A;
	configuration house_transformer;
}

object triplex_node {
	name node_30_A;
	nominal_voltage 124.00;
	phases AS;
}

object transformer {
	name house_trans_30_A;
	phases AS;
	from meter_30;
	to node_30_A;
	configuration house_transformer;
}

object triplex_node {
	name node_31_C;
	nominal_voltage 124.00;
	phases CS;
}

object transformer {
	name house_trans_31_C;
	phases CS;
	from meter_31;
	to node_31_C;
	configuration house_transformer;
}

object triplex_node {
	name node_32_C;
	nominal_voltage 124.00;
	phases CS;
}

object transformer {
	name house_trans_32_C;
	phases CS;
	from meter_32;
	to node_32_C;
	configuration house_transformer;
}

object triplex_node {
	name node_33_A;
	nominal_voltage 124.00;
	phases AS;
}

object transformer {
	name house_trans_33_A;
	phases AS;
	from meter_33;
	to node_33_A;
	configuration house_transformer;
}

object triplex_node {
	name node_34_C;
	nominal_voltage 124.00;
	phases CS;
}

object transformer {
	name house_trans_34_C;
	phases CS;
	from meter_34;
	to node_34_C;
	configuration house_transformer;
}

object triplex_node {
	name node_35_A;
	nominal_voltage 124.00;
	phases AS;
}

object transformer {
	name house_trans_35_A;
	phases AS;
	from meter_35;
	to node_35_A;
	configuration house_transformer;
}

object triplex_node {
	name node_37_A;
	nominal_voltage 124.00;
	phases AS;
}

object transformer {
	name house_trans_37_A;
	phases AS;
	from meter_37;
	to node_37_A;
	configuration house_transformer;
}

object triplex_node {
	name node_38_B;
	nominal_voltage 124.00;
	phases BS;
}

object transformer {
	name house_trans_38_B;
	phases BS;
	from meter_38;
	to node_38_B;
	configuration house_transformer;
}

object triplex_node {
	name node_39_B;
	nominal_voltage 124.00;
	phases BS;
}

object transformer {
	name house_trans_39_B;
	phases BS;
	from meter_39;
	to node_39_B;
	configuration house_transformer;
}

object triplex_node {
	name node_41_C;
	nominal_voltage 124.00;
	phases CS;
}

object transformer {
	name house_trans_41_C;
	phases CS;
	from meter_41;
	to node_41_C;
	configuration house_transformer;
}

object triplex_node {
	name node_42_A;
	nominal_voltage 124.00;
	phases AS;
}

object transformer {
	name house_trans_42_A;
	phases AS;
	from meter_42;
	to node_42_A;
	configuration house_transformer;
}

object triplex_node {
	name node_43_B;
	nominal_voltage 124.00;
	phases BS;
}

object transformer {
	name house_trans_43_B;
	phases BS;
	from meter_43;
	to node_43_B;
	configuration house_transformer;
}

object triplex_node {
	name node_45_A;
	nominal_voltage 124.00;
	phases AS;
}

object transformer {
	name house_trans_45_A;
	phases AS;
	from meter_45;
	to node_45_A;
	configuration house_transformer;
}

object triplex_node {
	name node_46_A;
	nominal_voltage 124.00;
	phases AS;
}

object transformer {
	name house_trans_46_A;
	phases AS;
	from meter_46;
	to node_46_A;
	configuration house_transformer;
}

object triplex_node {
	name node_47_A;
	nominal_voltage 124.00;
	phases AS;
}

object transformer {
	name house_trans_47_A;
	phases AS;
	from meter_47;
	to node_47_A;
	configuration house_transformer;
}

object triplex_node {
	name node_47_B;
	nominal_voltage 124.00;
	phases BS;
}

object transformer {
	name house_trans_47_B;
	phases BS;
	from meter_47;
	to node_47_B;
	configuration house_transformer;
}

object triplex_node {
	name node_47_C;
	nominal_voltage 124.00;
	phases CS;
}

object transformer {
	name house_trans_47_C;
	phases CS;
	from meter_47;
	to node_47_C;
	configuration house_transformer;
}

object triplex_node {
	name node_48_A;
	nominal_voltage 124.00;
	phases AS;
}

object transformer {
	name house_trans_48_A;
	phases AS;
	from meter_48;
	to node_48_A;
	configuration house_transformer;
}

object triplex_node {
	name node_48_B;
	nominal_voltage 124.00;
	phases BS;
}

object transformer {
	name house_trans_48_B;
	phases BS;
	from meter_48;
	to node_48_B;
	configuration house_transformer;
}

object triplex_node {
	name node_48_C;
	nominal_voltage 124.00;
	phases CS;
}

object transformer {
	name house_trans_48_C;
	phases CS;
	from meter_48;
	to node_48_C;
	configuration house_transformer;
}

object triplex_node {
	name node_49_A;
	nominal_voltage 124.00;
	phases AS;
}

object transformer {
	name house_trans_49_A;
	phases AS;
	from meter_49;
	to node_49_A;
	configuration house_transformer;
}

object triplex_node {
	name node_49_B;
	nominal_voltage 124.00;
	phases BS;
}

object transformer {
	name house_trans_49_B;
	phases BS;
	from meter_49;
	to node_49_B;
	configuration house_transformer;
}

object triplex_node {
	name node_49_C;
	nominal_voltage 124.00;
	phases CS;
}

object transformer {
	name house_trans_49_C;
	phases CS;
	from meter_49;
	to node_49_C;
	configuration house_transformer;
}

object triplex_node {
	name node_50_C;
	nominal_voltage 124.00;
	phases CS;
}

object transformer {
	name house_trans_50_C;
	phases CS;
	from meter_50;
	to node_50_C;
	configuration house_transformer;
}

object triplex_node {
	name node_51_A;
	nominal_voltage 124.00;
	phases AS;
}

object transformer {
	name house_trans_51_A;
	phases AS;
	from meter_51;
	to node_51_A;
	configuration house_transformer;
}

object triplex_node {
	name node_52_A;
	nominal_voltage 124.00;
	phases AS;
}

object transformer {
	name house_trans_52_A;
	phases AS;
	from meter_52;
	to node_52_A;
	configuration house_transformer;
}

object triplex_node {
	name node_53_A;
	nominal_voltage 124.00;
	phases AS;
}

object transformer {
	name house_trans_53_A;
	phases AS;
	from meter_53;
	to node_53_A;
	configuration house_transformer;
}

object triplex_node {
	name node_55_A;
	nominal_voltage 124.00;
	phases AS;
}

object transformer {
	name house_trans_55_A;
	phases AS;
	from meter_55;
	to node_55_A;
	configuration house_transformer;
}

object triplex_node {
	name node_56_B;
	nominal_voltage 124.00;
	phases BS;
}

object transformer {
	name house_trans_56_B;
	phases BS;
	from meter_56;
	to node_56_B;
	configuration house_transformer;
}

object triplex_node {
	name node_58_B;
	nominal_voltage 124.00;
	phases BS;
}

object transformer {
	name house_trans_58_B;
	phases BS;
	from meter_58;
	to node_58_B;
	configuration house_transformer;
}

object triplex_node {
	name node_59_B;
	nominal_voltage 124.00;
	phases BS;
}

object transformer {
	name house_trans_59_B;
	phases BS;
	from meter_59;
	to node_59_B;
	configuration house_transformer;
}

object triplex_node {
	name node_60_A;
	nominal_voltage 124.00;
	phases AS;
}

object transformer {
	name house_trans_60_A;
	phases AS;
	from meter_60;
	to node_60_A;
	configuration house_transformer;
}

object triplex_node {
	name node_62_C;
	nominal_voltage 124.00;
	phases CS;
}

object transformer {
	name house_trans_62_C;
	phases CS;
	from meter_62;
	to node_62_C;
	configuration house_transformer;
}

object triplex_node {
	name node_63_A;
	nominal_voltage 124.00;
	phases AS;
}

object transformer {
	name house_trans_63_A;
	phases AS;
	from meter_63;
	to node_63_A;
	configuration house_transformer;
}

object triplex_node {
	name node_64_B;
	nominal_voltage 124.00;
	phases BS;
}

object transformer {
	name house_trans_64_B;
	phases BS;
	from meter_64;
	to node_64_B;
	configuration house_transformer;
}

object triplex_node {
	name node_65_A;
	nominal_voltage 124.00;
	phases AS;
}

object transformer {
	name house_trans_65_A;
	phases AS;
	from meter_65;
	to node_65_A;
	configuration house_transformer;
}

object triplex_node {
	name node_65_B;
	nominal_voltage 124.00;
	phases BS;
}

object transformer {
	name house_trans_65_B;
	phases BS;
	from meter_65;
	to node_65_B;
	configuration house_transformer;
}

object triplex_node {
	name node_65_C;
	nominal_voltage 124.00;
	phases CS;
}

object transformer {
	name house_trans_65_C;
	phases CS;
	from meter_65;
	to node_65_C;
	configuration house_transformer;
}

object triplex_node {
	name node_66_C;
	nominal_voltage 124.00;
	phases CS;
}

object transformer {
	name house_trans_66_C;
	phases CS;
	from meter_66;
	to node_66_C;
	configuration house_transformer;
}

object triplex_node {
	name node_68_A;
	nominal_voltage 124.00;
	phases AS;
}

object transformer {
	name house_trans_68_A;
	phases AS;
	from meter_68;
	to node_68_A;
	configuration house_transformer;
}

object triplex_node {
	name node_69_A;
	nominal_voltage 124.00;
	phases AS;
}

object transformer {
	name house_trans_69_A;
	phases AS;
	from meter_69;
	to node_69_A;
	configuration house_transformer;
}

object triplex_node {
	name node_70_A;
	nominal_voltage 124.00;
	phases AS;
}

object transformer {
	name house_trans_70_A;
	phases AS;
	from meter_70;
	to node_70_A;
	configuration house_transformer;
}

object triplex_node {
	name node_71_A;
	nominal_voltage 124.00;
	phases AS;
}

object transformer {
	name house_trans_71_A;
	phases AS;
	from meter_71;
	to node_71_A;
	configuration house_transformer;
}

object triplex_node {
	name node_73_C;
	nominal_voltage 124.00;
	phases CS;
}

object transformer {
	name house_trans_73_C;
	phases CS;
	from meter_73;
	to node_73_C;
	configuration house_transformer;
}

object triplex_node {
	name node_74_C;
	nominal_voltage 124.00;
	phases CS;
}

object transformer {
	name house_trans_74_C;
	phases CS;
	from meter_74;
	to node_74_C;
	configuration house_transformer;
}

object triplex_node {
	name node_75_C;
	nominal_voltage 124.00;
	phases CS;
}

object transformer {
	name house_trans_75_C;
	phases CS;
	from meter_75;
	to node_75_C;
	configuration house_transformer;
}

object triplex_node {
	name node_76_A;
	nominal_voltage 124.00;
	phases AS;
}

object transformer {
	name house_trans_76_A;
	phases AS;
	from meter_76;
	to node_76_A;
	configuration house_transformer;
}

object triplex_node {
	name node_76_B;
	nominal_voltage 124.00;
	phases BS;
}

object transformer {
	name house_trans_76_B;
	phases BS;
	from meter_76;
	to node_76_B;
	configuration house_transformer;
}

object triplex_node {
	name node_76_C;
	nominal_voltage 124.00;
	phases CS;
}

object transformer {
	name house_trans_76_C;
	phases CS;
	from meter_76;
	to node_76_C;
	configuration house_transformer;
}

object triplex_node {
	name node_77_B;
	nominal_voltage 124.00;
	phases BS;
}

object transformer {
	name house_trans_77_B;
	phases BS;
	from meter_77;
	to node_77_B;
	configuration house_transformer;
}

object triplex_node {
	name node_79_A;
	nominal_voltage 124.00;
	phases AS;
}

object transformer {
	name house_trans_79_A;
	phases AS;
	from meter_79;
	to node_79_A;
	configuration house_transformer;
}

object triplex_node {
	name node_80_B;
	nominal_voltage 124.00;
	phases BS;
}

object transformer {
	name house_trans_80_B;
	phases BS;
	from meter_80;
	to node_80_B;
	configuration house_transformer;
}

object triplex_node {
	name node_82_A;
	nominal_voltage 124.00;
	phases AS;
}

object transformer {
	name house_trans_82_A;
	phases AS;
	from meter_82;
	to node_82_A;
	configuration house_transformer;
}

object triplex_node {
	name node_83_C;
	nominal_voltage 124.00;
	phases CS;
}

object transformer {
	name house_trans_83_C;
	phases CS;
	from meter_83;
	to node_83_C;
	configuration house_transformer;
}

object triplex_node {
	name node_84_C;
	nominal_voltage 124.00;
	phases CS;
}

object transformer {
	name house_trans_84_C;
	phases CS;
	from meter_84;
	to node_84_C;
	configuration house_transformer;
}

object triplex_node {
	name node_85_C;
	nominal_voltage 124.00;
	phases CS;
}

object transformer {
	name house_trans_85_C;
	phases CS;
	from meter_85;
	to node_85_C;
	configuration house_transformer;
}

object triplex_node {
	name node_86_B;
	nominal_voltage 124.00;
	phases BS;
}

object transformer {
	name house_trans_86_B;
	phases BS;
	from meter_86;
	to node_86_B;
	configuration house_transformer;
}

object triplex_node {
	name node_87_B;
	nominal_voltage 124.00;
	phases BS;
}

object transformer {
	name house_trans_87_B;
	phases BS;
	from meter_87;
	to node_87_B;
	configuration house_transformer;
}

object triplex_node {
	name node_88_A;
	nominal_voltage 124.00;
	phases AS;
}

object transformer {
	name house_trans_88_A;
	phases AS;
	from meter_88;
	to node_88_A;
	configuration house_transformer;
}

object triplex_node {
	name node_90_B;
	nominal_voltage 124.00;
	phases BS;
}

object transformer {
	name house_trans_90_B;
	phases BS;
	from meter_90;
	to node_90_B;
	configuration house_transformer;
}

object triplex_node {
	name node_92_C;
	nominal_voltage 124.00;
	phases CS;
}

object transformer {
	name house_trans_92_C;
	phases CS;
	from meter_92;
	to node_92_C;
	configuration house_transformer;
}

object triplex_node {
	name node_94_A;
	nominal_voltage 124.00;
	phases AS;
}

object transformer {
	name house_trans_94_A;
	phases AS;
	from meter_94;
	to node_94_A;
	configuration house_transformer;
}

object triplex_node {
	name node_95_B;
	nominal_voltage 124.00;
	phases BS;
}

object transformer {
	name house_trans_95_B;
	phases BS;
	from meter_95;
	to node_95_B;
	configuration house_transformer;
}

object triplex_node {
	name node_96_B;
	nominal_voltage 124.00;
	phases BS;
}

object transformer {
	name house_trans_96_B;
	phases BS;
	from meter_96;
	to node_96_B;
	configuration house_transformer;
}

object triplex_node {
	name node_98_A;
	nominal_voltage 124.00;
	phases AS;
}

object transformer {
	name house_trans_98_A;
	phases AS;
	from meter_98;
	to node_98_A;
	configuration house_transformer;
}

object triplex_node {
	name node_99_B;
	nominal_voltage 124.00;
	phases BS;
}

object transformer {
	name house_trans_99_B;
	phases BS;
	from meter_99;
	to node_99_B;
	configuration house_transformer;
}

object triplex_node {
	name node_100_C;
	nominal_voltage 124.00;
	phases CS;
}

object transformer {
	name house_trans_100_C;
	phases CS;
	from meter_100;
	to node_100_C;
	configuration house_transformer;
}

object triplex_node {
	name node_102_C;
	nominal_voltage 124.00;
	phases CS;
}

object transformer {
	name house_trans_102_C;
	phases CS;
	from meter_102;
	to node_102_C;
	configuration house_transformer;
}

object triplex_node {
	name node_103_C;
	nominal_voltage 124.00;
	phases CS;
}

object transformer {
	name house_trans_103_C;
	phases CS;
	from meter_103;
	to node_103_C;
	configuration house_transformer;
}

object triplex_node {
	name node_104_C;
	nominal_voltage 124.00;
	phases CS;
}

object transformer {
	name house_trans_104_C;
	phases CS;
	from meter_104;
	to node_104_C;
	configuration house_transformer;
}

object triplex_node {
	name node_106_B;
	nominal_voltage 124.00;
	phases BS;
}

object transformer {
	name house_trans_106_B;
	phases BS;
	from meter_106;
	to node_106_B;
	configuration house_transformer;
}

object triplex_node {
	name node_107_B;
	nominal_voltage 124.00;
	phases BS;
}

object transformer {
	name house_trans_107_B;
	phases BS;
	from meter_107;
	to node_107_B;
	configuration house_transformer;
}

object triplex_node {
	name node_109_A;
	nominal_voltage 124.00;
	phases AS;
}

object transformer {
	name house_trans_109_A;
	phases AS;
	from meter_109;
	to node_109_A;
	configuration house_transformer;
}

object triplex_node {
	name node_111_A;
	nominal_voltage 124.00;
	phases AS;
}

object transformer {
	name house_trans_111_A;
	phases AS;
	from meter_111;
	to node_111_A;
	configuration house_transformer;
}

object triplex_node {
	name node_112_A;
	nominal_voltage 124.00;
	phases AS;
}

object transformer {
	name house_trans_112_A;
	phases AS;
	from meter_112;
	to node_112_A;
	configuration house_transformer;
}

object triplex_node {
	name node_113_A;
	nominal_voltage 124.00;
	phases AS;
}

object transformer {
	name house_trans_113_A;
	phases AS;
	from meter_113;
	to node_113_A;
	configuration house_transformer;
}

object triplex_node {
	name node_114_A;
	nominal_voltage 124.00;
	phases AS;
}

object transformer {
	name house_trans_114_A;
	phases AS;
	from meter_114;
	to node_114_A;
	configuration house_transformer;
}

object triplex_meter {
	name meter_GLD_B1_N48_C_0001;
	nominal_voltage 124.00;
	groupid House_meter;
	phases CS;
}

object house {
	name GLD_B1_N48_C_0001;
	number_of_stories 1;
	cooling_setpoint 68;
	heating_setpoint 63;
	T_min 60;
	T_max 71;
	k 2.0;
	cooling_system_type ELECTRIC;
	heating_system_type GAS;
	hvac_energy_5min sumHVAC(GLD_B1_N48_C_0001:hvac_load);
	floor_area 2561;
	window_wall_ratio 0.15;
	airchange_per_hour 0.28;
	parent meter_GLD_B1_N48_C_0001;
	air_temperature 69.50829455004609;
	mass_temperature 69.24289455004607;
}

object ZIPload {
	parent GLD_B1_N48_C_0001;
	name zip_GLD_B1_N48_C_0001;
	power_fraction 0.5;
	impedance_fraction 0.5;
	current_fraction 0.0;
	power_pf 0.9;
	current_pf 0.9;
	impedance_pf 0.9;
	heat_fraction 0.0;
	base_power player_20.value;
}

object triplex_line {
	name house_line_GLD_0001;
	from node_48_C;
	to meter_GLD_B1_N48_C_0001;
	phases CS;
	length 30 ft;
	configuration triplex_line_config;
}

object triplex_meter {
	name meter_GLD_B1_N19_A_0002;
	nominal_voltage 124.00;
	groupid House_meter;
	phases AS;
}

object house {
	name GLD_B1_N19_A_0002;
	number_of_stories 1;
	cooling_setpoint 72;
	heating_setpoint 67;
	T_min 64;
	T_max 75;
	k 2.0;
	cooling_system_type ELECTRIC;
	heating_system_type GAS;
	hvac_energy_5min sumHVAC(GLD_B1_N19_A_0002:hvac_load);
	floor_area 2486;
	window_wall_ratio 0.15;
	airchange_per_hour 0.33;
	parent meter_GLD_B1_N19_A_0002;
	air_temperature 70.55921406094032;
	mass_temperature 71.75581406094032;
}

object ZIPload {
	parent GLD_B1_N19_A_0002;
	name zip_GLD_B1_N19_A_0002;
	power_fraction 0.5;
	impedance_fraction 0.5;
	current_fraction 0.0;
	power_pf 0.9;
	current_pf 0.9;
	impedance_pf 0.9;
	heat_fraction 0.0;
	base_power player_68.value;
}

object triplex_line {
	name house_line_GLD_0002;
	from node_19_A;
	to meter_GLD_B1_N19_A_0002;
	phases AS;
	length 30 ft;
	configuration triplex_line_config;
}

object triplex_meter {
	name meter_GLD_B1_N84_C_0003;
	nominal_voltage 124.00;
	groupid House_meter;
	phases CS;
}

object house {
	name GLD_B1_N84_C_0003;
	number_of_stories 1;
	cooling_setpoint 75;
	heating_setpoint 70;
	T_min 67;
	T_max 78;
	k 3.6;
	cooling_system_type ELECTRIC;
	heating_system_type GAS;
	hvac_energy_5min sumHVAC(GLD_B1_N84_C_0003:hvac_load);
	floor_area 2238;
	window_wall_ratio 0.16;
	airchange_per_hour 0.19;
	parent meter_GLD_B1_N84_C_0003;
	air_temperature 74.27943088972614;
	mass_temperature 74.29733088972614;
}

object ZIPload {
	parent GLD_B1_N84_C_0003;
	name zip_GLD_B1_N84_C_0003;
	power_fraction 0.5;
	impedance_fraction 0.5;
	current_fraction 0.0;
	power_pf 0.9;
	current_pf 0.9;
	impedance_pf 0.9;
	heat_fraction 0.0;
	base_power player_81.value;
}

object triplex_line {
	name house_line_GLD_0003;
	from node_84_C;
	to meter_GLD_B1_N84_C_0003;
	phases CS;
	length 30 ft;
	configuration triplex_line_config;
}

object triplex_meter {
	name meter_GLD_B1_N12_B_0004;
	nominal_voltage 124.00;
	groupid House_meter;
	phases BS;
}

object house {
	name GLD_B1_N12_B_0004;
	number_of_stories 1;
	cooling_setpoint 71;
	heating_setpoint 66;
	T_min 63;
	T_max 74;
	k 3.2;
	cooling_system_type ELECTRIC;
	heating_system_type GAS;
	hvac_energy_5min sumHVAC(GLD_B1_N12_B_0004:hvac_load);
	floor_area 1145;
	window_wall_ratio 0.15;
	airchange_per_hour 0.47;
	parent meter_GLD_B1_N12_B_0004;
	air_temperature 72.98340115219683;
	mass_temperature 72.87220115219684;
}

object ZIPload {
	parent GLD_B1_N12_B_0004;
	name zip_GLD_B1_N12_B_0004;
	power_fraction 0.5;
	impedance_fraction 0.5;
	current_fraction 0.0;
	power_pf 0.9;
	current_pf 0.9;
	impedance_pf 0.9;
	heat_fraction 0.0;
	base_power player_70.value;
}

object triplex_line {
	name house_line_GLD_0004;
	from node_12_B;
	to meter_GLD_B1_N12_B_0004;
	phases BS;
	length 30 ft;
	configuration triplex_line_config;
}

object triplex_meter {
	name meter_GLD_B1_N87_B_0005;
	nominal_voltage 124.00;
	groupid House_meter;
	phases BS;
}

object house {
	name GLD_B1_N87_B_0005;
	number_of_stories 1;
	cooling_setpoint 67;
	heating_setpoint 62;
	T_min 59;
	T_max 70;
	k 2.6;
	cooling_system_type ELECTRIC;
	heating_system_type RESISTANCE;
	hvac_energy_5min sumHVAC(GLD_B1_N87_B_0005:hvac_load);
	floor_area 2191;
	window_wall_ratio 0.15;
	airchange_per_hour 0.47;
	parent meter_GLD_B1_N87_B_0005;
	air_temperature 67.35215255445408;
	mass_temperature 67.00885255445408;
}

object ZIPload {
	parent GLD_B1_N87_B_0005;
	name zip_GLD_B1_N87_B_0005;
	power_fraction 0.5;
	impedance_fraction 0.5;
	current_fraction 0.0;
	power_pf 0.9;
	current_pf 0.9;
	impedance_pf 0.9;
	heat_fraction 0.0;
	base_power player_82.value;
}

object triplex_line {
	name house_line_GLD_0005;
	from node_87_B;
	to meter_GLD_B1_N87_B_0005;
	phases BS;
	length 30 ft;
	configuration triplex_line_config;
}

object triplex_meter {
	name meter_GLD_B1_N7_A_0006;
	nominal_voltage 124.00;
	groupid House_meter;
	phases AS;
}

object house {
	name GLD_B1_N7_A_0006;
	number_of_stories 1;
	cooling_setpoint 70;
	heating_setpoint 65;
	T_min 62;
	T_max 73;
	k 2.0;
	cooling_system_type HEAT_PUMP;
	heating_system_type HEAT_PUMP;
	hvac_energy_5min sumHVAC(GLD_B1_N7_A_0006:hvac_load);
	floor_area 2625;
	window_wall_ratio 0.15;
	airchange_per_hour 0.16;
	parent meter_GLD_B1_N7_A_0006;
	air_temperature 70.02960113707084;
	mass_temperature 69.86450113707085;
}

object ZIPload {
	parent GLD_B1_N7_A_0006;
	name zip_GLD_B1_N7_A_0006;
	power_fraction 0.5;
	impedance_fraction 0.5;
	current_fraction 0.0;
	power_pf 0.9;
	current_pf 0.9;
	impedance_pf 0.9;
	heat_fraction 0.0;
	base_power player_22.value;
}

object triplex_line {
	name house_line_GLD_0006;
	from node_7_A;
	to meter_GLD_B1_N7_A_0006;
	phases AS;
	length 30 ft;
	configuration triplex_line_config;
}

object triplex_meter {
	name meter_GLD_B1_N94_A_0007;
	nominal_voltage 124.00;
	groupid House_meter;
	phases AS;
}

object house {
	name GLD_B1_N94_A_0007;
	number_of_stories 1;
	cooling_setpoint 71;
	heating_setpoint 66;
	T_min 63;
	T_max 74;
	k 2.0;
	cooling_system_type ELECTRIC;
	heating_system_type RESISTANCE;
	hvac_energy_5min sumHVAC(GLD_B1_N94_A_0007:hvac_load);
	floor_area 1753;
	window_wall_ratio 0.16;
	airchange_per_hour 0.19;
	parent meter_GLD_B1_N94_A_0007;
	air_temperature 72.58891288817229;
	mass_temperature 72.46231288817229;
}

object ZIPload {
	parent GLD_B1_N94_A_0007;
	name zip_GLD_B1_N94_A_0007;
	power_fraction 0.5;
	impedance_fraction 0.5;
	current_fraction 0.0;
	power_pf 0.9;
	current_pf 0.9;
	impedance_pf 0.9;
	heat_fraction 0.0;
	base_power player_87.value;
}

object triplex_line {
	name house_line_GLD_0007;
	from node_94_A;
	to meter_GLD_B1_N94_A_0007;
	phases AS;
	length 30 ft;
	configuration triplex_line_config;
}

object triplex_meter {
	name meter_GLD_B1_N76_A_0008;
	nominal_voltage 124.00;
	groupid House_meter;
	phases AS;
}

object house {
	name GLD_B1_N76_A_0008;
	number_of_stories 1;
	cooling_setpoint 63;
	heating_setpoint 58;
	T_min 55;
	T_max 66;
	k 2.1;
	cooling_system_type ELECTRIC;
	heating_system_type GAS;
	hvac_energy_5min sumHVAC(GLD_B1_N76_A_0008:hvac_load);
	floor_area 1444;
	window_wall_ratio 0.14;
	airchange_per_hour 0.4;
	parent meter_GLD_B1_N76_A_0008;
	air_temperature 63.79978619002966;
	mass_temperature 63.39678619002966;
}

object ZIPload {
	parent GLD_B1_N76_A_0008;
	name zip_GLD_B1_N76_A_0008;
	power_fraction 0.5;
	impedance_fraction 0.5;
	current_fraction 0.0;
	power_pf 0.9;
	current_pf 0.9;
	impedance_pf 0.9;
	heat_fraction 0.0;
	base_power player_65.value;
}

object triplex_line {
	name house_line_GLD_0008;
	from node_76_A;
	to meter_GLD_B1_N76_A_0008;
	phases AS;
	length 30 ft;
	configuration triplex_line_config;
}

object triplex_meter {
	name meter_GLD_B1_N28_A_0009;
	nominal_voltage 124.00;
	groupid House_meter;
	phases AS;
}

object house {
	name GLD_B1_N28_A_0009;
	number_of_stories 2;
	cooling_setpoint 73;
	heating_setpoint 68;
	T_min 65;
	T_max 76;
	k 2.6;
	cooling_system_type ELECTRIC;
	heating_system_type GAS;
	hvac_energy_5min sumHVAC(GLD_B1_N28_A_0009:hvac_load);
	floor_area 2678;
	window_wall_ratio 0.15;
	airchange_per_hour 0.15;
	parent meter_GLD_B1_N28_A_0009;
	air_temperature 74.18758181521572;
	mass_temperature 74.14578181521573;
}

object ZIPload {
	parent GLD_B1_N28_A_0009;
	name zip_GLD_B1_N28_A_0009;
	power_fraction 0.5;
	impedance_fraction 0.5;
	current_fraction 0.0;
	power_pf 0.9;
	current_pf 0.9;
	impedance_pf 0.9;
	heat_fraction 0.0;
	base_power player_75.value;
}

object triplex_line {
	name house_line_GLD_0009;
	from node_28_A;
	to meter_GLD_B1_N28_A_0009;
	phases AS;
	length 30 ft;
	configuration triplex_line_config;
}

object triplex_meter {
	name meter_GLD_B1_N2_B_0010;
	nominal_voltage 124.00;
	groupid House_meter;
	phases BS;
}

object house {
	name GLD_B1_N2_B_0010;
	number_of_stories 1;
	cooling_setpoint 75;
	heating_setpoint 70;
	T_min 67;
	T_max 78;
	k 4.0;
	cooling_system_type ELECTRIC;
	heating_system_type GAS;
	hvac_energy_5min sumHVAC(GLD_B1_N2_B_0010:hvac_load);
	floor_area 2774;
	window_wall_ratio 0.16;
	airchange_per_hour 0.23;
	parent meter_GLD_B1_N2_B_0010;
	air_temperature 76.82646170486373;
	mass_temperature 76.85496170486374;
}

object ZIPload {
	parent GLD_B1_N2_B_0010;
	name zip_GLD_B1_N2_B_0010;
	power_fraction 0.5;
	impedance_fraction 0.5;
	current_fraction 0.0;
	power_pf 0.9;
	current_pf 0.9;
	impedance_pf 0.9;
	heat_fraction 0.0;
	base_power player_82.value;
}

object triplex_line {
	name house_line_GLD_0010;
	from node_2_B;
	to meter_GLD_B1_N2_B_0010;
	phases BS;
	length 30 ft;
	configuration triplex_line_config;
}

object triplex_meter {
	name meter_GLD_B1_N88_A_0011;
	nominal_voltage 124.00;
	groupid House_meter;
	phases AS;
}

object house {
	name GLD_B1_N88_A_0011;
	number_of_stories 1;
	cooling_setpoint 77;
	heating_setpoint 72;
	T_min 69;
	T_max 80;
	k 3.7;
	cooling_system_type ELECTRIC;
	heating_system_type GAS;
	hvac_energy_5min sumHVAC(GLD_B1_N88_A_0011:hvac_load);
	floor_area 1395;
	window_wall_ratio 0.16;
	airchange_per_hour 0.33;
	parent meter_GLD_B1_N88_A_0011;
	air_temperature 75.68048392678922;
	mass_temperature 75.75588392678921;
}

object ZIPload {
	parent GLD_B1_N88_A_0011;
	name zip_GLD_B1_N88_A_0011;
	power_fraction 0.5;
	impedance_fraction 0.5;
	current_fraction 0.0;
	power_pf 0.9;
	current_pf 0.9;
	impedance_pf 0.9;
	heat_fraction 0.0;
	base_power player_94.value;
}

object triplex_line {
	name house_line_GLD_0011;
	from node_88_A;
	to meter_GLD_B1_N88_A_0011;
	phases AS;
	length 30 ft;
	configuration triplex_line_config;
}

object triplex_meter {
	name meter_GLD_B1_N83_C_0012;
	nominal_voltage 124.00;
	groupid House_meter;
	phases CS;
}

object house {
	name GLD_B1_N83_C_0012;
	number_of_stories 2;
	cooling_setpoint 70;
	heating_setpoint 65;
	T_min 62;
	T_max 73;
	k 2.1;
	cooling_system_type ELECTRIC;
	heating_system_type GAS;
	hvac_energy_5min sumHVAC(GLD_B1_N83_C_0012:hvac_load);
	floor_area 1146;
	window_wall_ratio 0.15;
	airchange_per_hour 1.1;
	parent meter_GLD_B1_N83_C_0012;
	air_temperature 70.96950385254624;
	mass_temperature 70.77400385254624;
}

object ZIPload {
	parent GLD_B1_N83_C_0012;
	name zip_GLD_B1_N83_C_0012;
	power_fraction 0.5;
	impedance_fraction 0.5;
	current_fraction 0.0;
	power_pf 0.9;
	current_pf 0.9;
	impedance_pf 0.9;
	heat_fraction 0.0;
	base_power player_10.value;
}

object triplex_line {
	name house_line_GLD_0012;
	from node_83_C;
	to meter_GLD_B1_N83_C_0012;
	phases CS;
	length 30 ft;
	configuration triplex_line_config;
}

object triplex_meter {
	name meter_GLD_B1_N9_A_0013;
	nominal_voltage 124.00;
	groupid House_meter;
	phases AS;
}

object house {
	name GLD_B1_N9_A_0013;
	number_of_stories 1;
	cooling_setpoint 72;
	heating_setpoint 67;
	T_min 64;
	T_max 75;
	k 2.8;
	cooling_system_type ELECTRIC;
	heating_system_type GAS;
	hvac_energy_5min sumHVAC(GLD_B1_N9_A_0013:hvac_load);
	floor_area 3290;
	window_wall_ratio 0.15;
	airchange_per_hour 0.28;
	parent meter_GLD_B1_N9_A_0013;
	air_temperature 73.79646955318873;
	mass_temperature 73.69866955318874;
}

object ZIPload {
	parent GLD_B1_N9_A_0013;
	name zip_GLD_B1_N9_A_0013;
	power_fraction 0.5;
	impedance_fraction 0.5;
	current_fraction 0.0;
	power_pf 0.9;
	current_pf 0.9;
	impedance_pf 0.9;
	heat_fraction 0.0;
	base_power player_101.value;
}

object triplex_line {
	name house_line_GLD_0013;
	from node_9_A;
	to meter_GLD_B1_N9_A_0013;
	phases AS;
	length 30 ft;
	configuration triplex_line_config;
}

object triplex_meter {
	name meter_GLD_B1_N38_B_0014;
	nominal_voltage 124.00;
	groupid House_meter;
	phases BS;
}

object house {
	name GLD_B1_N38_B_0014;
	number_of_stories 2;
	cooling_setpoint 63;
	heating_setpoint 58;
	T_min 55;
	T_max 66;
	k 2.9;
	cooling_system_type ELECTRIC;
	heating_system_type GAS;
	hvac_energy_5min sumHVAC(GLD_B1_N38_B_0014:hvac_load);
	floor_area 2802;
	window_wall_ratio 0.15;
	airchange_per_hour 0.7;
	parent meter_GLD_B1_N38_B_0014;
	air_temperature 62.35636841190917;
	mass_temperature 62.07766841190917;
}

object ZIPload {
	parent GLD_B1_N38_B_0014;
	name zip_GLD_B1_N38_B_0014;
	power_fraction 0.5;
	impedance_fraction 0.5;
	current_fraction 0.0;
	power_pf 0.9;
	current_pf 0.9;
	impedance_pf 0.9;
	heat_fraction 0.0;
	base_power player_89.value;
}

object triplex_line {
	name house_line_GLD_0014;
	from node_38_B;
	to meter_GLD_B1_N38_B_0014;
	phases BS;
	length 30 ft;
	configuration triplex_line_config;
}

object triplex_meter {
	name meter_GLD_B1_N62_C_0015;
	nominal_voltage 124.00;
	groupid House_meter;
	phases CS;
}

object house {
	name GLD_B1_N62_C_0015;
	number_of_stories 1;
	cooling_setpoint 69;
	heating_setpoint 64;
	T_min 61;
	T_max 72;
	k 3.2;
	cooling_system_type ELECTRIC;
	heating_system_type GAS;
	hvac_energy_5min sumHVAC(GLD_B1_N62_C_0015:hvac_load);
	floor_area 1243;
	window_wall_ratio 0.15;
	airchange_per_hour 0.56;
	parent meter_GLD_B1_N62_C_0015;
	air_temperature 69.46268598905463;
	mass_temperature 69.21428598905463;
}

object ZIPload {
	parent GLD_B1_N62_C_0015;
	name zip_GLD_B1_N62_C_0015;
	power_fraction 0.5;
	impedance_fraction 0.5;
	current_fraction 0.0;
	power_pf 0.9;
	current_pf 0.9;
	impedance_pf 0.9;
	heat_fraction 0.0;
	base_power player_9.value;
}

object triplex_line {
	name house_line_GLD_0015;
	from node_62_C;
	to meter_GLD_B1_N62_C_0015;
	phases CS;
	length 30 ft;
	configuration triplex_line_config;
}

object triplex_meter {
	name meter_GLD_B1_N32_C_0016;
	nominal_voltage 124.00;
	groupid House_meter;
	phases CS;
}

object house {
	name GLD_B1_N32_C_0016;
	number_of_stories 1;
	cooling_setpoint 71;
	heating_setpoint 66;
	T_min 63;
	T_max 74;
	k 3.6;
	cooling_system_type ELECTRIC;
	heating_system_type GAS;
	hvac_energy_5min sumHVAC(GLD_B1_N32_C_0016:hvac_load);
	floor_area 1503;
	window_wall_ratio 0.15;
	airchange_per_hour 0.4;
	parent meter_GLD_B1_N32_C_0016;
	air_temperature 72.95140824283128;
	mass_temperature 72.80580824283128;
}

object ZIPload {
	parent GLD_B1_N32_C_0016;
	name zip_GLD_B1_N32_C_0016;
	power_fraction 0.5;
	impedance_fraction 0.5;
	current_fraction 0.0;
	power_pf 0.9;
	current_pf 0.9;
	impedance_pf 0.9;
	heat_fraction 0.0;
	base_power player_40.value;
}

object triplex_line {
	name house_line_GLD_0016;
	from node_32_C;
	to meter_GLD_B1_N32_C_0016;
	phases CS;
	length 30 ft;
	configuration triplex_line_config;
}

object triplex_meter {
	name meter_GLD_B1_N30_A_0017;
	nominal_voltage 124.00;
	groupid House_meter;
	phases AS;
}

object house {
	name GLD_B1_N30_A_0017;
	number_of_stories 2;
	cooling_setpoint 74;
	heating_setpoint 69;
	T_min 66;
	T_max 77;
	k 2.0;
	cooling_system_type ELECTRIC;
	heating_system_type RESISTANCE;
	hvac_energy_5min sumHVAC(GLD_B1_N30_A_0017:hvac_load);
	floor_area 2349;
	window_wall_ratio 0.15;
	airchange_per_hour 0.93;
	parent meter_GLD_B1_N30_A_0017;
	air_temperature 73.69153280540415;
	mass_temperature 73.67513280540416;
}

object ZIPload {
	parent GLD_B1_N30_A_0017;
	name zip_GLD_B1_N30_A_0017;
	power_fraction 0.5;
	impedance_fraction 0.5;
	current_fraction 0.0;
	power_pf 0.9;
	current_pf 0.9;
	impedance_pf 0.9;
	heat_fraction 0.0;
	base_power player_75.value;
}

object triplex_line {
	name house_line_GLD_0017;
	from node_30_A;
	to meter_GLD_B1_N30_A_0017;
	phases AS;
	length 30 ft;
	configuration triplex_line_config;
}

object triplex_meter {
	name meter_GLD_B1_N100_C_0018;
	nominal_voltage 124.00;
	groupid House_meter;
	phases CS;
}

object house {
	name GLD_B1_N100_C_0018;
	number_of_stories 1;
	cooling_setpoint 71;
	heating_setpoint 66;
	T_min 63;
	T_max 74;
	k 4.0;
	cooling_system_type ELECTRIC;
	heating_system_type GAS;
	hvac_energy_5min sumHVAC(GLD_B1_N100_C_0018:hvac_load);
	floor_area 2555;
	window_wall_ratio 0.15;
	airchange_per_hour 0.42;
	parent meter_GLD_B1_N100_C_0018;
	air_temperature 69.43438162287863;
	mass_temperature 70.29578162287864;
}

object ZIPload {
	parent GLD_B1_N100_C_0018;
	name zip_GLD_B1_N100_C_0018;
	power_fraction 0.5;
	impedance_fraction 0.5;
	current_fraction 0.0;
	power_pf 0.9;
	current_pf 0.9;
	impedance_pf 0.9;
	heat_fraction 0.0;
	base_power player_28.value;
}

object triplex_line {
	name house_line_GLD_0018;
	from node_100_C;
	to meter_GLD_B1_N100_C_0018;
	phases CS;
	length 30 ft;
	configuration triplex_line_config;
}

object triplex_meter {
	name meter_GLD_B1_N17_C_0019;
	nominal_voltage 124.00;
	groupid House_meter;
	phases CS;
}

object house {
	name GLD_B1_N17_C_0019;
	number_of_stories 1;
	cooling_setpoint 70;
	heating_setpoint 65;
	T_min 62;
	T_max 73;
	k 2.7;
	cooling_system_type ELECTRIC;
	heating_system_type GAS;
	hvac_energy_5min sumHVAC(GLD_B1_N17_C_0019:hvac_load);
	floor_area 1881;
	window_wall_ratio 0.15;
	airchange_per_hour 0.44;
	parent meter_GLD_B1_N17_C_0019;
	air_temperature 71.6238849377637;
	mass_temperature 71.51608493776371;
}

object ZIPload {
	parent GLD_B1_N17_C_0019;
	name zip_GLD_B1_N17_C_0019;
	power_fraction 0.5;
	impedance_fraction 0.5;
	current_fraction 0.0;
	power_pf 0.9;
	current_pf 0.9;
	impedance_pf 0.9;
	heat_fraction 0.0;
	base_power player_24.value;
}

object triplex_line {
	name house_line_GLD_0019;
	from node_17_C;
	to meter_GLD_B1_N17_C_0019;
	phases CS;
	length 30 ft;
	configuration triplex_line_config;
}

object triplex_meter {
	name meter_GLD_B1_N42_A_0020;
	nominal_voltage 124.00;
	groupid House_meter;
	phases AS;
}

object house {
	name GLD_B1_N42_A_0020;
	number_of_stories 1;
	cooling_setpoint 71;
	heating_setpoint 66;
	T_min 63;
	T_max 74;
	k 2.3;
	cooling_system_type ELECTRIC;
	heating_system_type GAS;
	hvac_energy_5min sumHVAC(GLD_B1_N42_A_0020:hvac_load);
	floor_area 1879;
	window_wall_ratio 0.14;
	airchange_per_hour 0.47;
	parent meter_GLD_B1_N42_A_0020;
	air_temperature 71.39924425527965;
	mass_temperature 71.24924425527965;
}

object ZIPload {
	parent GLD_B1_N42_A_0020;
	name zip_GLD_B1_N42_A_0020;
	power_fraction 0.5;
	impedance_fraction 0.5;
	current_fraction 0.0;
	power_pf 0.9;
	current_pf 0.9;
	impedance_pf 0.9;
	heat_fraction 0.0;
	base_power player_26.value;
}

object triplex_line {
	name house_line_GLD_0020;
	from node_42_A;
	to meter_GLD_B1_N42_A_0020;
	phases AS;
	length 30 ft;
	configuration triplex_line_config;
}

object triplex_meter {
	name meter_GLD_B1_N43_B_0021;
	nominal_voltage 124.00;
	groupid House_meter;
	phases BS;
}

object house {
	name GLD_B1_N43_B_0021;
	number_of_stories 1;
	cooling_setpoint 69;
	heating_setpoint 64;
	T_min 61;
	T_max 72;
	k 3.6;
	cooling_system_type ELECTRIC;
	heating_system_type RESISTANCE;
	hvac_energy_5min sumHVAC(GLD_B1_N43_B_0021:hvac_load);
	floor_area 1898;
	window_wall_ratio 0.16;
	airchange_per_hour 0.33;
	parent meter_GLD_B1_N43_B_0021;
	air_temperature 69.84927811856164;
	mass_temperature 69.61627811856165;
}

object ZIPload {
	parent GLD_B1_N43_B_0021;
	name zip_GLD_B1_N43_B_0021;
	power_fraction 0.5;
	impedance_fraction 0.5;
	current_fraction 0.0;
	power_pf 0.9;
	current_pf 0.9;
	impedance_pf 0.9;
	heat_fraction 0.0;
	base_power player_24.value;
}

object triplex_line {
	name house_line_GLD_0021;
	from node_43_B;
	to meter_GLD_B1_N43_B_0021;
	phases BS;
	length 30 ft;
	configuration triplex_line_config;
}

object triplex_meter {
	name meter_GLD_B1_N22_B_0022;
	nominal_voltage 124.00;
	groupid House_meter;
	phases BS;
}

object house {
	name GLD_B1_N22_B_0022;
	number_of_stories 2;
	cooling_setpoint 73;
	heating_setpoint 68;
	T_min 65;
	T_max 76;
	k 4.0;
	cooling_system_type ELECTRIC;
	heating_system_type GAS;
	hvac_energy_5min sumHVAC(GLD_B1_N22_B_0022:hvac_load);
	floor_area 3181;
	window_wall_ratio 0.15;
	airchange_per_hour 0.38;
	parent meter_GLD_B1_N22_B_0022;
	air_temperature 73.34365711405505;
	mass_temperature 73.30165711405505;
}

object ZIPload {
	parent GLD_B1_N22_B_0022;
	name zip_GLD_B1_N22_B_0022;
	power_fraction 0.5;
	impedance_fraction 0.5;
	current_fraction 0.0;
	power_pf 0.9;
	current_pf 0.9;
	impedance_pf 0.9;
	heat_fraction 0.0;
	base_power player_32.value;
}

object triplex_line {
	name house_line_GLD_0022;
	from node_22_B;
	to meter_GLD_B1_N22_B_0022;
	phases BS;
	length 30 ft;
	configuration triplex_line_config;
}

object triplex_meter {
	name meter_GLD_B1_N62_C_0023;
	nominal_voltage 124.00;
	groupid House_meter;
	phases CS;
}

object house {
	name GLD_B1_N62_C_0023;
	number_of_stories 1;
	cooling_setpoint 75;
	heating_setpoint 70;
	T_min 67;
	T_max 78;
	k 2.0;
	cooling_system_type ELECTRIC;
	heating_system_type GAS;
	hvac_energy_5min sumHVAC(GLD_B1_N62_C_0023:hvac_load);
	floor_area 1351;
	window_wall_ratio 0.14;
	airchange_per_hour 0.51;
	parent meter_GLD_B1_N62_C_0023;
	air_temperature 75.97767116822438;
	mass_temperature 76.00327116822437;
}

object ZIPload {
	parent GLD_B1_N62_C_0023;
	name zip_GLD_B1_N62_C_0023;
	power_fraction 0.5;
	impedance_fraction 0.5;
	current_fraction 0.0;
	power_pf 0.9;
	current_pf 0.9;
	impedance_pf 0.9;
	heat_fraction 0.0;
	base_power player_81.value;
}

object triplex_line {
	name house_line_GLD_0023;
	from node_62_C;
	to meter_GLD_B1_N62_C_0023;
	phases CS;
	length 30 ft;
	configuration triplex_line_config;
}

object triplex_meter {
	name meter_GLD_B1_N79_A_0024;
	nominal_voltage 124.00;
	groupid House_meter;
	phases AS;
}

object house {
	name GLD_B1_N79_A_0024;
	number_of_stories 2;
	cooling_setpoint 75;
	heating_setpoint 70;
	T_min 67;
	T_max 78;
	k 3.7;
	cooling_system_type ELECTRIC;
	heating_system_type GAS;
	hvac_energy_5min sumHVAC(GLD_B1_N79_A_0024:hvac_load);
	floor_area 2162;
	window_wall_ratio 0.14;
	airchange_per_hour 0.2;
	parent meter_GLD_B1_N79_A_0024;
	air_temperature 76.08217073249523;
	mass_temperature 76.09277073249523;
}

object ZIPload {
	parent GLD_B1_N79_A_0024;
	name zip_GLD_B1_N79_A_0024;
	power_fraction 0.5;
	impedance_fraction 0.5;
	current_fraction 0.0;
	power_pf 0.9;
	current_pf 0.9;
	impedance_pf 0.9;
	heat_fraction 0.0;
	base_power player_50.value;
}

object triplex_line {
	name house_line_GLD_0024;
	from node_79_A;
	to meter_GLD_B1_N79_A_0024;
	phases AS;
	length 30 ft;
	configuration triplex_line_config;
}

object triplex_meter {
	name meter_GLD_B1_N104_C_0025;
	nominal_voltage 124.00;
	groupid House_meter;
	phases CS;
}

object house {
	name GLD_B1_N104_C_0025;
	number_of_stories 1;
	cooling_setpoint 73;
	heating_setpoint 68;
	T_min 65;
	T_max 76;
	k 4.0;
	cooling_system_type ELECTRIC;
	heating_system_type GAS;
	hvac_energy_5min sumHVAC(GLD_B1_N104_C_0025:hvac_load);
	floor_area 1436;
	window_wall_ratio 0.15;
	airchange_per_hour 0.7;
	parent meter_GLD_B1_N104_C_0025;
	air_temperature 74.54936941888906;
	mass_temperature 74.47786941888906;
}

object ZIPload {
	parent GLD_B1_N104_C_0025;
	name zip_GLD_B1_N104_C_0025;
	power_fraction 0.5;
	impedance_fraction 0.5;
	current_fraction 0.0;
	power_pf 0.9;
	current_pf 0.9;
	impedance_pf 0.9;
	heat_fraction 0.0;
	base_power player_68.value;
}

object triplex_line {
	name house_line_GLD_0025;
	from node_104_C;
	to meter_GLD_B1_N104_C_0025;
	phases CS;
	length 30 ft;
	configuration triplex_line_config;
}

object triplex_meter {
	name meter_GLD_B1_N104_C_0026;
	nominal_voltage 124.00;
	groupid House_meter;
	phases CS;
}

object house {
	name GLD_B1_N104_C_0026;
	number_of_stories 2;
	cooling_setpoint 71;
	heating_setpoint 66;
	T_min 63;
	T_max 74;
	k 2.3;
	cooling_system_type ELECTRIC;
	heating_system_type GAS;
	hvac_energy_5min sumHVAC(GLD_B1_N104_C_0026:hvac_load);
	floor_area 3751;
	window_wall_ratio 0.17;
	airchange_per_hour 0.38;
	parent meter_GLD_B1_N104_C_0026;
	air_temperature 70.36607217504547;
	mass_temperature 70.23957217504548;
}

object ZIPload {
	parent GLD_B1_N104_C_0026;
	name zip_GLD_B1_N104_C_0026;
	power_fraction 0.5;
	impedance_fraction 0.5;
	current_fraction 0.0;
	power_pf 0.9;
	current_pf 0.9;
	impedance_pf 0.9;
	heat_fraction 0.0;
	base_power player_54.value;
}

object triplex_line {
	name house_line_GLD_0026;
	from node_104_C;
	to meter_GLD_B1_N104_C_0026;
	phases CS;
	length 30 ft;
	configuration triplex_line_config;
}

object triplex_meter {
	name meter_GLD_B1_N114_A_0027;
	nominal_voltage 124.00;
	groupid House_meter;
	phases AS;
}

object house {
	name GLD_B1_N114_A_0027;
	number_of_stories 1;
	cooling_setpoint 70;
	heating_setpoint 65;
	T_min 62;
	T_max 73;
	k 3.4;
	cooling_system_type ELECTRIC;
	heating_system_type RESISTANCE;
	hvac_energy_5min sumHVAC(GLD_B1_N114_A_0027:hvac_load);
	floor_area 3344;
	window_wall_ratio 0.15;
	airchange_per_hour 0.16;
	parent meter_GLD_B1_N114_A_0027;
	air_temperature 70.16597409529413;
	mass_temperature 69.99727409529413;
}

object ZIPload {
	parent GLD_B1_N114_A_0027;
	name zip_GLD_B1_N114_A_0027;
	power_fraction 0.5;
	impedance_fraction 0.5;
	current_fraction 0.0;
	power_pf 0.9;
	current_pf 0.9;
	impedance_pf 0.9;
	heat_fraction 0.0;
	base_power player_54.value;
}

object triplex_line {
	name house_line_GLD_0027;
	from node_114_A;
	to meter_GLD_B1_N114_A_0027;
	phases AS;
	length 30 ft;
	configuration triplex_line_config;
}

object triplex_meter {
	name meter_GLD_B1_N103_C_0028;
	nominal_voltage 124.00;
	groupid House_meter;
	phases CS;
}

object house {
	name GLD_B1_N103_C_0028;
	number_of_stories 1;
	cooling_setpoint 69;
	heating_setpoint 64;
	T_min 61;
	T_max 72;
	k 2.9;
	cooling_system_type ELECTRIC;
	heating_system_type RESISTANCE;
	hvac_energy_5min sumHVAC(GLD_B1_N103_C_0028:hvac_load);
	floor_area 1941;
	window_wall_ratio 0.15;
	airchange_per_hour 0.16;
	parent meter_GLD_B1_N103_C_0028;
	air_temperature 68.22079243817493;
	mass_temperature 69.88429243817492;
}

object ZIPload {
	parent GLD_B1_N103_C_0028;
	name zip_GLD_B1_N103_C_0028;
	power_fraction 0.5;
	impedance_fraction 0.5;
	current_fraction 0.0;
	power_pf 0.9;
	current_pf 0.9;
	impedance_pf 0.9;
	heat_fraction 0.0;
	base_power player_76.value;
}

object triplex_line {
	name house_line_GLD_0028;
	from node_103_C;
	to meter_GLD_B1_N103_C_0028;
	phases CS;
	length 30 ft;
	configuration triplex_line_config;
}

object triplex_meter {
	name meter_GLD_B1_N20_A_0029;
	nominal_voltage 124.00;
	groupid House_meter;
	phases AS;
}

object house {
	name GLD_B1_N20_A_0029;
	number_of_stories 1;
	cooling_setpoint 70;
	heating_setpoint 65;
	T_min 62;
	T_max 73;
	k 3.3;
	cooling_system_type ELECTRIC;
	heating_system_type GAS;
	hvac_energy_5min sumHVAC(GLD_B1_N20_A_0029:hvac_load);
	floor_area 1084;
	window_wall_ratio 0.15;
	airchange_per_hour 0.4;
	parent meter_GLD_B1_N20_A_0029;
	air_temperature 72.1955341196254;
	mass_temperature 72.0082341196254;
}

object ZIPload {
	parent GLD_B1_N20_A_0029;
	name zip_GLD_B1_N20_A_0029;
	power_fraction 0.5;
	impedance_fraction 0.5;
	current_fraction 0.0;
	power_pf 0.9;
	current_pf 0.9;
	impedance_pf 0.9;
	heat_fraction 0.0;
	base_power player_27.value;
}

object triplex_line {
	name house_line_GLD_0029;
	from node_20_A;
	to meter_GLD_B1_N20_A_0029;
	phases AS;
	length 30 ft;
	configuration triplex_line_config;
}

object triplex_meter {
	name meter_GLD_B1_N12_B_0030;
	nominal_voltage 124.00;
	groupid House_meter;
	phases BS;
}

object house {
	name GLD_B1_N12_B_0030;
	number_of_stories 2;
	cooling_setpoint 67;
	heating_setpoint 62;
	T_min 59;
	T_max 70;
	k 3.8;
	cooling_system_type ELECTRIC;
	heating_system_type GAS;
	hvac_energy_5min sumHVAC(GLD_B1_N12_B_0030:hvac_load);
	floor_area 2517;
	window_wall_ratio 0.15;
	airchange_per_hour 0.29;
	parent meter_GLD_B1_N12_B_0030;
	air_temperature 67.76483628072403;
	mass_temperature 67.52383628072403;
}

object ZIPload {
	parent GLD_B1_N12_B_0030;
	name zip_GLD_B1_N12_B_0030;
	power_fraction 0.5;
	impedance_fraction 0.5;
	current_fraction 0.0;
	power_pf 0.9;
	current_pf 0.9;
	impedance_pf 0.9;
	heat_fraction 0.0;
	base_power player_22.value;
}

object triplex_line {
	name house_line_GLD_0030;
	from node_12_B;
	to meter_GLD_B1_N12_B_0030;
	phases BS;
	length 30 ft;
	configuration triplex_line_config;
}

object triplex_meter {
	name meter_GLD_B1_N10_A_0031;
	nominal_voltage 124.00;
	groupid House_meter;
	phases AS;
}

object house {
	name GLD_B1_N10_A_0031;
	number_of_stories 1;
	cooling_setpoint 75;
	heating_setpoint 70;
	T_min 67;
	T_max 78;
	k 2.0;
	cooling_system_type ELECTRIC;
	heating_system_type RESISTANCE;
	hvac_energy_5min sumHVAC(GLD_B1_N10_A_0031:hvac_load);
	floor_area 2058;
	window_wall_ratio 0.15;
	airchange_per_hour 0.21;
	parent meter_GLD_B1_N10_A_0031;
	air_temperature 74.19408633017882;
	mass_temperature 74.21978633017883;
}

object ZIPload {
	parent GLD_B1_N10_A_0031;
	name zip_GLD_B1_N10_A_0031;
	power_fraction 0.5;
	impedance_fraction 0.5;
	current_fraction 0.0;
	power_pf 0.9;
	current_pf 0.9;
	impedance_pf 0.9;
	heat_fraction 0.0;
	base_power player_22.value;
}

object triplex_line {
	name house_line_GLD_0031;
	from node_10_A;
	to meter_GLD_B1_N10_A_0031;
	phases AS;
	length 30 ft;
	configuration triplex_line_config;
}

object triplex_meter {
	name meter_GLD_B1_N75_C_0032;
	nominal_voltage 124.00;
	groupid House_meter;
	phases CS;
}

object house {
	name GLD_B1_N75_C_0032;
	number_of_stories 1;
	cooling_setpoint 72;
	heating_setpoint 67;
	T_min 64;
	T_max 75;
	k 2.6;
	cooling_system_type ELECTRIC;
	heating_system_type GAS;
	hvac_energy_5min sumHVAC(GLD_B1_N75_C_0032:hvac_load);
	floor_area 2011;
	window_wall_ratio 0.16;
	airchange_per_hour 0.51;
	parent meter_GLD_B1_N75_C_0032;
	air_temperature 72.90361323968715;
	mass_temperature 72.79011323968714;
}

object ZIPload {
	parent GLD_B1_N75_C_0032;
	name zip_GLD_B1_N75_C_0032;
	power_fraction 0.5;
	impedance_fraction 0.5;
	current_fraction 0.0;
	power_pf 0.9;
	current_pf 0.9;
	impedance_pf 0.9;
	heat_fraction 0.0;
	base_power player_93.value;
}

object triplex_line {
	name house_line_GLD_0032;
	from node_75_C;
	to meter_GLD_B1_N75_C_0032;
	phases CS;
	length 30 ft;
	configuration triplex_line_config;
}

object triplex_meter {
	name meter_GLD_B1_N73_C_0033;
	nominal_voltage 124.00;
	groupid House_meter;
	phases CS;
}

object house {
	name GLD_B1_N73_C_0033;
	number_of_stories 2;
	cooling_setpoint 77;
	heating_setpoint 72;
	T_min 69;
	T_max 80;
	k 2.0;
	cooling_system_type ELECTRIC;
	heating_system_type GAS;
	hvac_energy_5min sumHVAC(GLD_B1_N73_C_0033:hvac_load);
	floor_area 3100;
	window_wall_ratio 0.14;
	airchange_per_hour 0.58;
	parent meter_GLD_B1_N73_C_0033;
	air_temperature 78.26016645861446;
	mass_temperature 78.33716645861446;
}

object ZIPload {
	parent GLD_B1_N73_C_0033;
	name zip_GLD_B1_N73_C_0033;
	power_fraction 0.5;
	impedance_fraction 0.5;
	current_fraction 0.0;
	power_pf 0.9;
	current_pf 0.9;
	impedance_pf 0.9;
	heat_fraction 0.0;
	base_power player_93.value;
}

object triplex_line {
...